<net version="1.9" xmlns:xsi="http://www.w3.org/2001/XMLSchema-instance" xsi:noNamespaceSchemaLocation="http://sumo.dlr.de/xsd/net_file.xsd">
    <location netOffset="100.00,100.00" convBoundary="0.00,0.00,200.00,200.00" origBoundary="-100.00,-100.00,100.00,100.00" projParameter="!"/>

    <edge id=":J1_0" function="internal">
        <lane id=":J1_0_0" index="0" speed="13.89" length="9.03" shape="95.20,110.40 94.85,107.95 93.80,106.20 92.05,105.15 89.60,104.80"/>
    </edge>
    <edge id=":J1_1" function="internal">
        <lane id=":J1_1_0" index="0" speed="13.89" length="20.80" shape="95.20,110.40 95.20,89.60"/>
    </edge>
    <edge id=":J1_2" function="internal">
        <lane id=":J1_2_0" index="0" speed="13.89" length="9.03" shape="95.20,110.40 95.55,107.95 96.60,106.20 98.35,105.15 100.80,104.80"/>
    </edge>
    <edge id=":J1_3" function="internal">
        <lane id=":J1_3_0" index="0" speed="13.89" length="9.03" shape="110.40,104.80 107.95,105.15 106.20,106.20 105.15,107.95 104.80,110.40"/>
    </edge>
    <edge id=":J1_4" function="internal">
        <lane id=":J1_4_0" index="0" speed="13.89" length="20.80" shape="110.40,104.80 89.60,104.80"/>
    </edge>
    <edge id=":J1_5" function="internal">
        <lane id=":J1_5_0" index="0" speed="13.89" length="9.03" shape="110.40,104.80 107.95,104.45 106.20,103.40 105.15,101.65 104.80,99.20"/>
    </edge>
    <edge id=":J1_6" function="internal">
        <lane id=":J1_6_0" index="0" speed="13.89" length="9.03" shape="104.80,89.60 105.15,92.05 106.20,93.80 107.95,94.85 110.40,95.20"/>
    </edge>
    <edge id=":J1_7" function="internal">
        <lane id=":J1_7_0" index="0" speed="13.89" length="20.80" shape="104.80,89.60 104.80,110.40"/>
    </edge>
    <edge id=":J1_8" function="internal">
        <lane id=":J1_8_0" index="0" speed="13.89" length="9.03" shape="104.80,89.60 104.45,92.05 103.40,93.80 101.65,94.85 99.20,95.20"/>
    </edge>
    <edge id=":J1_9" function="internal">
        <lane id=":J1_9_0" index="0" speed="13.89" length="9.03" shape="89.60,95.20 92.05,94.85 93.80,93.80 94.85,92.05 95.20,89.60"/>
    </edge>
    <edge id=":J1_10" function="internal">
        <lane id=":J1_10_0" index="0" speed="13.89" length="20.80" shape="89.60,95.20 110.40,95.20"/>
    </edge>
    <edge id=":J1_11" function="internal">
        <lane id=":J1_11_0" index="0" speed="13.89" length="9.03" shape="89.60,95.20 92.05,95.55 93.80,96.60 94.85,98.35 95.20,100.80"/>
    </edge>

    <edge id="E0" from="J0" to="J1" priority="1">
        <lane id="E0_0" index="0" speed="13.89" length="500.00" shape="0.00,92.00 89.60,92.00"/>
        <lane id="E0_1" index="1" speed="13.89" length="500.00" shape="0.00,95.20 89.60,95.20"/>
        <lane id="E0_2" index="2" speed="13.89" length="500.00" shape="0.00,98.40 89.60,98.40"/>
    </edge>
    <edge id="E1" from="J1" to="J2" priority="1">
        <lane id="E1_0" index="0" speed="13.89" length="500.00" shape="110.40,98.40 200.00,98.40"/>
        <lane id="E1_1" index="1" speed="13.89" length="500.00" shape="110.40,95.20 200.00,95.20"/>
        <lane id="E1_2" index="2" speed="13.89" length="500.00" shape="110.40,92.00 200.00,92.00"/>
    </edge>
    <edge id="E2" from="J1" to="J3" priority="1">
        <lane id="E2_0" index="0" speed="13.89" length="500.00" shape="108.00,110.40 108.00,200.00"/>
        <lane id="E2_1" index="1" speed="13.89" length="500.00" shape="104.80,110.40 104.80,200.00"/>
        <lane id="E2_2" index="2" speed="13.89" length="500.00" shape="101.60,110.40 101.60,200.00"/>
    </edge>
    <edge id="E3" from="J1" to="J4" priority="1">
        <lane id="E3_0" index="0" speed="13.89" length="500.00" shape="92.00,89.60 92.00,0.00"/>
        <lane id="E3_1" index="1" speed="13.89" length="500.00" shape="95.20,89.60 95.20,0.00"/>
        <lane id="E3_2" index="2" speed="13.89" length="500.00" shape="98.40,89.60 98.40,0.00"/>
    </edge>
    <edge id="E4" from="J2" to="J1" priority="1">
        <lane id="E4_0" index="0" speed="13.89" length="500.00" shape="200.00,108.00 110.40,108.00"/>
        <lane id="E4_1" index="1" speed="13.89" length="500.00" shape="200.00,104.80 110.40,104.80"/>
        <lane id="E4_2" index="2" speed="13.89" length="500.00" shape="200.00,101.60 110.40,101.60"/>
    </edge>
    <edge id="E5" from="J3" to="J1" priority="1">
        <lane id="E5_0" index="0" speed="13.89" length="500.00" shape="92.00,200.00 92.00,110.40"/>
        <lane id="E5_1" index="1" speed="13.89" length="500.00" shape="95.20,200.00 95.20,110.40"/>
        <lane id="E5_2" index="2" speed="13.89" length="500.00" shape="98.40,200.00 98.40,110.40"/>
    </edge>
    <edge id="E6" from="J4" to="J1" priority="1">
        <lane id="E6_0" index="0" speed="13.89" length="500.00" shape="108.00,0.00 108.00,89.60"/>
        <lane id="E6_1" index="1" speed="13.89" length="500.00" shape="104.80,0.00 104.80,89.60"/>
        <lane id="E6_2" index="2" speed="13.89" length="500.00" shape="101.60,0.00 101.60,89.60"/>
    </edge>
    <edge id="E7" from="J1" to="J0" priority="1">
        <lane id="E7_0" index="0" speed="13.89" length="500.00" shape="89.60,108.00 0.00,108.00"/>
        <lane id="E7_1" index="1" speed="13.89" length="500.00" shape="89.60,104.80 0.00,104.80"/>
        <lane id="E7_2" index="2" speed="13.89" length="500.00" shape="89.60,101.60 0.00,101.60"/>
    </edge>

    <junction id="J0" type="dead_end" x="0.00" y="100.00" incLanes="E7_0 E7_1 E7_2" intLanes="" shape="0.00,100.00 0.00,109.60 0.00,100.00"/>
    <junction id="J1" type="traffic_light" x="100.00" y="100.00" incLanes="E5_0 E5_1 E5_2 E4_0 E4_1 E4_2 E6_0 E6_1 E6_2 E0_0 E0_1 E0_2" intLanes=":J1_0_0 :J1_1_0 :J1_2_0 :J1_3_0 :J1_4_0 :J1_5_0 :J1_6_0 :J1_7_0 :J1_8_0 :J1_9_0 :J1_10_0 :J1_11_0" shape="90.40,110.40 109.60,110.40 110.40,109.60 110.40,90.40 109.60,89.60 90.40,89.60 89.60,90.40 89.60,109.60">
        <request index="0"  response="000000000000" foes="000100010000" cont="0"/>
        <request index="1"  response="000000000000" foes="111100110000" cont="0"/>
        <request index="2"  response="000011000000" foes="110011110000" cont="0"/>
        <request index="3"  response="000010000000" foes="100010000000" cont="0"/>
        <request index="4"  response="000110000111" foes="100110000111" cont="0"/>
        <request index="5"  response="011110000110" foes="011110000110" cont="0"/>
        <request index="6"  response="000000000000" foes="010000000100" cont="0"/>
        <request index="7"  response="000000000000" foes="110000111100" cont="0"/>
        <request index="8"  response="000000000011" foes="110000110011" cont="0"/>
        <request index="9"  response="000000000010" foes="000000100010" cont="0"/>
        <request index="10" response="000111000110" foes="000111100110" cont="0"/>
        <request index="11" response="000110011110" foes="000110011110" cont="0"/>
    </junction>
    <junction id="J2" type="dead_end" x="200.00" y="100.00" incLanes="E1_0 E1_1 E1_2" intLanes="" shape="200.00,100.00 200.00,90.40 200.00,100.00"/>
    <junction id="J3" type="dead_end" x="100.00" y="200.00" incLanes="E2_0 E2_1 E2_2" intLanes="" shape="100.00,200.00 109.60,200.00 100.00,200.00"/>
    <junction id="J4" type="dead_end" x="100.00" y="0.00" incLanes="E3_0 E3_1 E3_2" intLanes="" shape="100.00,0.00 90.40,0.00 100.00,0.00"/>

    <connection from="E0" to="E3" fromLane="0" toLane="0" via=":J1_9_0" dir="r" state="m"/>
    <connection from="E0" to="E1" fromLane="1" toLane="1" via=":J1_10_0" dir="s" state="m"/>
    <connection from="E0" to="E2" fromLane="2" toLane="2" via=":J1_11_0" dir="l" state="m"/>
    <connection from="E4" to="E2" fromLane="0" toLane="0" via=":J1_3_0" dir="r" state="m"/>
    <connection from="E4" to="E7" fromLane="1" toLane="1" via=":J1_4_0" dir="s" state="m"/>
    <connection from="E4" to="E3" fromLane="2" toLane="2" via=":J1_5_0" dir="l" state="m"/>
    <connection from="E5" to="E7" fromLane="0" toLane="0" via=":J1_0_0" dir="r" state="M"/>
    <connection from="E5" to="E3" fromLane="1" toLane="1" via=":J1_1_0" dir="s" state="M"/>
    <connection from="E5" to="E1" fromLane="2" toLane="2" via=":J1_2_0" dir="l" state="m"/>
    <connection from="E6" to="E1" fromLane="0" toLane="0" via=":J1_6_0" dir="r" state="M"/>
    <connection from="E6" to="E2" fromLane="1" toLane="1" via=":J1_7_0" dir="s" state="M"/>
    <connection from="E6" to="E7" fromLane="2" toLane="2" via=":J1_8_0" dir="l" state="m"/>

    <connection from=":J1_0" to="E7" fromLane="0" toLane="0" dir="r" state="M"/>
    <connection from=":J1_1" to="E3" fromLane="0" toLane="1" dir="s" state="M"/>
    <connection from=":J1_2" to="E1" fromLane="0" toLane="2" dir="l" state="M"/>
    <connection from=":J1_3" to="E2" fromLane="0" toLane="0" dir="r" state="M"/>
    <connection from=":J1_4" to="E7" fromLane="0" toLane="1" dir="s" state="M"/>
    <connection from=":J1_5" to="E3" fromLane="0" toLane="2" dir="l" state="M"/>
    <connection from=":J1_6" to="E1" fromLane="0" toLane="0" dir="r" state="M"/>
    <connection from=":J1_7" to="E2" fromLane="0" toLane="1" dir="s" state="M"/>
    <connection from=":J1_8" to="E7" fromLane="0" toLane="2" dir="l" state="M"/>
    <connection from=":J1_9" to="E3" fromLane="0" toLane="0" dir="r" state="M"/>
    <connection from=":J1_10" to="E1" fromLane="0" toLane="1" dir="s" state="M"/>
    <connection from=":J1_11" to="E2" fromLane="0" toLane="2" dir="l" state="M"/>
    <tlLogic id="J1" type="static" programID="0" offset="0">
        <phase duration="31" state="rGGrrGrGGrrG"/>
        <phase duration="4" state="ryyrryryyrry"/>
        <phase duration="31" state="rrGrGGrrGrGG"/>
        <phase duration="4" state="rryryyrryryy"/>
        <phase duration="31" state="GrGrrGGrGrrG"/>
        <phase duration="4" state="yryrryyryrry"/>
        <phase duration="31" state="rrGGrGrrGGrG"/>
        <phase duration="4" state="rryyryrryyry"/>
        <phase duration="31" state="rrGrrGGGGrrG"/>
        <phase duration="4" state="rryrryyyyrry"/>
        <phase duration="31" state="GGGrrGrrGrrG"/>
        <phase duration="4" state="yyyrryrryrry"/>
        <phase duration="31" state="rrGGGGrrGrrG"/>
        <phase duration="4" state="rryyyyrryrry"/>
        <phase duration="31" state="rrGrrGrrGGGG"/>
        <phase duration="4" state="rryrryrryyyy"/>
    </tlLogic>
</net>