<?xml version="1.0" encoding="UTF-8"?>

<!-- generated on 2024-11-18 01:32:02 by Eclipse SUMO netconvert Version 1.20.0
<configuration xmlns:xsi="http://www.w3.org/2001/XMLSchema-instance" xsi:noNamespaceSchemaLocation="http://sumo.dlr.de/xsd/netconvertConfiguration.xsd">

    <input>
        <sumo-net-file value="intersection.net.xml"/>
    </input>

    <output>
        <output-file value="validated.net.xml"/>
    </output>

    <processing>
        <geometry.min-radius.fix.railways value="false"/>
        <geometry.max-grade.fix value="false"/>
        <offset.disable-normalization value="true"/>
        <lefthand value="0"/>
    </processing>

    <junctions>
        <no-turnarounds value="true"/>
        <junctions.corner-detail value="0"/>
        <junctions.limit-turn-speed value="-1.00"/>
        <rectangular-lane-cut value="0"/>
    </junctions>

    <pedestrian>
        <walkingareas value="0"/>
    </pedestrian>

</configuration>
-->

<net version="1.20" xmlns:xsi="http://www.w3.org/2001/XMLSchema-instance" xsi:noNamespaceSchemaLocation="http://sumo.dlr.de/xsd/net_file.xsd">

    <location netOffset="100.00,100.00" convBoundary="0.00,0.00,200.00,200.00" origBoundary="-100.00,-100.00,100.00,100.00" projParameter="!"/>

    <edge id=":J1_0" function="internal">
        <lane id=":J1_0_0" index="0" speed="13.89" length="9.03" shape="92.00,113.60 91.65,111.15 90.60,109.40 88.85,108.35 86.40,108.00"/>
    </edge>
    <edge id=":J1_1" function="internal">
        <lane id=":J1_1_0" index="0" speed="13.89" length="27.20" shape="95.20,113.60 95.20,86.40"/>
    </edge>
    <edge id=":J1_2" function="internal">
        <lane id=":J1_2_0" index="0" speed="13.89" length="12.07" shape="98.40,113.60 99.35,106.95 102.10,102.36"/>
    </edge>
    <edge id=":J1_12" function="internal">
        <lane id=":J1_12_0" index="0" speed="13.89" length="12.44" shape="102.10,102.36 102.20,102.20 106.95,99.35 113.60,98.40"/>
    </edge>
    <edge id=":J1_3" function="internal">
        <lane id=":J1_3_0" index="0" speed="13.89" length="9.03" shape="113.60,108.00 111.15,108.35 109.40,109.40 108.35,111.15 108.00,113.60"/>
    </edge>
    <edge id=":J1_4" function="internal">
        <lane id=":J1_4_0" index="0" speed="13.89" length="27.20" shape="113.60,104.80 86.40,104.80"/>
    </edge>
    <edge id=":J1_5" function="internal">
        <lane id=":J1_5_0" index="0" speed="13.89" length="24.51" shape="113.60,101.60 106.95,100.65 102.20,97.80 99.35,93.05 98.40,86.40"/>
    </edge>
    <edge id=":J1_6" function="internal">
        <lane id=":J1_6_0" index="0" speed="13.89" length="9.03" shape="108.00,86.40 108.35,88.85 109.40,90.60 111.15,91.65 113.60,92.00"/>
    </edge>
    <edge id=":J1_7" function="internal">
        <lane id=":J1_7_0" index="0" speed="13.89" length="27.20" shape="104.80,86.40 104.80,113.60"/>
    </edge>
    <edge id=":J1_8" function="internal">
        <lane id=":J1_8_0" index="0" speed="13.89" length="12.07" shape="101.60,86.40 100.65,93.05 97.90,97.64"/>
    </edge>
    <edge id=":J1_13" function="internal">
        <lane id=":J1_13_0" index="0" speed="13.89" length="12.44" shape="97.90,97.64 97.80,97.80 93.05,100.65 86.40,101.60"/>
    </edge>
    <edge id=":J1_9" function="internal">
        <lane id=":J1_9_0" index="0" speed="13.89" length="9.03" shape="86.40,92.00 88.85,91.65 90.60,90.60 91.65,88.85 92.00,86.40"/>
    </edge>
    <edge id=":J1_10" function="internal">
        <lane id=":J1_10_0" index="0" speed="13.89" length="27.20" shape="86.40,95.20 113.60,95.20"/>
    </edge>
    <edge id=":J1_11" function="internal">
        <lane id=":J1_11_0" index="0" speed="13.89" length="24.51" shape="86.40,98.40 93.05,99.35 97.80,102.20 100.65,106.95 101.60,113.60"/>
    </edge>

    <edge id="E0" from="J0" to="J1" priority="1">
        <lane id="E0_0" index="0" speed="13.89" length="86.40" shape="0.00,92.00 86.40,92.00"/>
        <lane id="E0_1" index="1" speed="13.89" length="86.40" shape="0.00,95.20 86.40,95.20"/>
        <lane id="E0_2" index="2" speed="13.89" length="86.40" shape="0.00,98.40 86.40,98.40"/>
    </edge>
    <edge id="E1" from="J1" to="J2" priority="1">
        <lane id="E1_0" index="0" speed="13.89" length="86.40" shape="113.60,92.00 200.00,92.00"/>
        <lane id="E1_1" index="1" speed="13.89" length="86.40" shape="113.60,95.20 200.00,95.20"/>
        <lane id="E1_2" index="2" speed="13.89" length="86.40" shape="113.60,98.40 200.00,98.40"/>
    </edge>
    <edge id="E2" from="J1" to="J3" priority="1">
        <lane id="E2_0" index="0" speed="13.89" length="86.40" shape="108.00,113.60 108.00,200.00"/>
        <lane id="E2_1" index="1" speed="13.89" length="86.40" shape="104.80,113.60 104.80,200.00"/>
        <lane id="E2_2" index="2" speed="13.89" length="86.40" shape="101.60,113.60 101.60,200.00"/>
    </edge>
    <edge id="E3" from="J1" to="J4" priority="1">
        <lane id="E3_0" index="0" speed="13.89" length="86.40" shape="92.00,86.40 92.00,0.00"/>
        <lane id="E3_1" index="1" speed="13.89" length="86.40" shape="95.20,86.40 95.20,0.00"/>
        <lane id="E3_2" index="2" speed="13.89" length="86.40" shape="98.40,86.40 98.40,0.00"/>
    </edge>
    <edge id="E4" from="J2" to="J1" priority="1">
        <lane id="E4_0" index="0" speed="13.89" length="86.40" shape="200.00,108.00 113.60,108.00"/>
        <lane id="E4_1" index="1" speed="13.89" length="86.40" shape="200.00,104.80 113.60,104.80"/>
        <lane id="E4_2" index="2" speed="13.89" length="86.40" shape="200.00,101.60 113.60,101.60"/>
    </edge>
    <edge id="E5" from="J3" to="J1" priority="1">
        <lane id="E5_0" index="0" speed="13.89" length="86.40" shape="92.00,200.00 92.00,113.60"/>
        <lane id="E5_1" index="1" speed="13.89" length="86.40" shape="95.20,200.00 95.20,113.60"/>
        <lane id="E5_2" index="2" speed="13.89" length="86.40" shape="98.40,200.00 98.40,113.60"/>
    </edge>
    <edge id="E6" from="J4" to="J1" priority="1">
        <lane id="E6_0" index="0" speed="13.89" length="86.40" shape="108.00,0.00 108.00,86.40"/>
        <lane id="E6_1" index="1" speed="13.89" length="86.40" shape="104.80,0.00 104.80,86.40"/>
        <lane id="E6_2" index="2" speed="13.89" length="86.40" shape="101.60,0.00 101.60,86.40"/>
    </edge>
    <edge id="E7" from="J1" to="J0" priority="1">
        <lane id="E7_0" index="0" speed="13.89" length="86.40" shape="86.40,108.00 0.00,108.00"/>
        <lane id="E7_1" index="1" speed="13.89" length="86.40" shape="86.40,104.80 0.00,104.80"/>
        <lane id="E7_2" index="2" speed="13.89" length="86.40" shape="86.40,101.60 0.00,101.60"/>
    </edge>

    <junction id="J0" type="dead_end" x="0.00" y="100.00" incLanes="E7_0 E7_1 E7_2" intLanes="" shape="0.00,100.00 0.00,109.60 0.00,100.00"/>
    <junction id="J1" type="traffic_light" x="100.00" y="100.00" incLanes="E5_0 E5_1 E5_2 E4_0 E4_1 E4_2 E6_0 E6_1 E6_2 E0_0 E0_1 E0_2" intLanes=":J1_0_0 :J1_1_0 :J1_12_0 :J1_3_0 :J1_4_0 :J1_5_0 :J1_6_0 :J1_7_0 :J1_13_0 :J1_9_0 :J1_10_0 :J1_11_0" shape="90.40,113.60 109.60,113.60 113.60,109.60 113.60,90.40 109.60,86.40 90.40,86.40 86.40,90.40 86.40,109.60">
        <request index="0"  response="000000000000" foes="000000000000" cont="0"/>
        <request index="1"  response="000000000000" foes="110100010000" cont="0"/>
        <request index="2"  response="000010000000" foes="100010110000" cont="1"/>
        <request index="3"  response="000000000000" foes="000000000000" cont="0"/>
        <request index="4"  response="000010000110" foes="100010000110" cont="0"/>
        <request index="5"  response="010110000100" foes="010110000100" cont="0"/>
        <request index="6"  response="000000000000" foes="000000000000" cont="0"/>
        <request index="7"  response="000000000000" foes="010000110100" cont="0"/>
        <request index="8"  response="000000000010" foes="110000100010" cont="1"/>
        <request index="9"  response="000000000000" foes="000000000000" cont="0"/>
        <request index="10" response="000110000010" foes="000110100010" cont="0"/>
        <request index="11" response="000100010110" foes="000100010110" cont="0"/>
    </junction>
    <junction id="J2" type="dead_end" x="200.00" y="100.00" incLanes="E1_0 E1_1 E1_2" intLanes="" shape="200.00,100.00 200.00,90.40 200.00,100.00"/>
    <junction id="J3" type="dead_end" x="100.00" y="200.00" incLanes="E2_0 E2_1 E2_2" intLanes="" shape="100.00,200.00 109.60,200.00 100.00,200.00"/>
    <junction id="J4" type="dead_end" x="100.00" y="0.00" incLanes="E3_0 E3_1 E3_2" intLanes="" shape="100.00,0.00 90.40,0.00 100.00,0.00"/>

    <junction id=":J1_12_0" type="internal" x="102.10" y="102.36" incLanes=":J1_2_0 E6_1" intLanes=":J1_4_0 :J1_5_0 :J1_7_0 :J1_11_0"/>
    <junction id=":J1_13_0" type="internal" x="97.90" y="97.64" incLanes=":J1_8_0 E5_1" intLanes=":J1_1_0 :J1_5_0 :J1_10_0 :J1_11_0"/>

    <connection from="E0" to="E3" fromLane="0" toLane="0" uncontrolled="1" via=":J1_9_0" dir="r" state="M"/>
    <connection from="E0" to="E1" fromLane="1" toLane="1" uncontrolled="1" via=":J1_10_0" dir="s" state="m"/>
    <connection from="E0" to="E2" fromLane="2" toLane="2" uncontrolled="1" via=":J1_11_0" dir="l" state="m"/>
    <connection from="E4" to="E2" fromLane="0" toLane="0" uncontrolled="1" via=":J1_3_0" dir="r" state="M"/>
    <connection from="E4" to="E7" fromLane="1" toLane="1" uncontrolled="1" via=":J1_4_0" dir="s" state="m"/>
    <connection from="E4" to="E3" fromLane="2" toLane="2" uncontrolled="1" via=":J1_5_0" dir="l" state="m"/>
    <connection from="E5" to="E7" fromLane="0" toLane="0" uncontrolled="1" via=":J1_0_0" dir="r" state="M"/>
    <connection from="E5" to="E3" fromLane="1" toLane="1" uncontrolled="1" via=":J1_1_0" dir="s" state="M"/>
    <connection from="E5" to="E1" fromLane="2" toLane="2" uncontrolled="1" via=":J1_2_0" dir="l" state="m"/>
    <connection from="E6" to="E1" fromLane="0" toLane="0" uncontrolled="1" via=":J1_6_0" dir="r" state="M"/>
    <connection from="E6" to="E2" fromLane="1" toLane="1" uncontrolled="1" via=":J1_7_0" dir="s" state="M"/>
    <connection from="E6" to="E7" fromLane="2" toLane="2" uncontrolled="1" via=":J1_8_0" dir="l" state="m"/>

    <connection from=":J1_0" to="E7" fromLane="0" toLane="0" dir="r" state="M"/>
    <connection from=":J1_1" to="E3" fromLane="0" toLane="1" dir="s" state="M"/>
    <connection from=":J1_2" to="E1" fromLane="0" toLane="2" via=":J1_12_0" dir="l" state="m"/>
    <connection from=":J1_12" to="E1" fromLane="0" toLane="2" dir="l" state="M"/>
    <connection from=":J1_3" to="E2" fromLane="0" toLane="0" dir="r" state="M"/>
    <connection from=":J1_4" to="E7" fromLane="0" toLane="1" dir="s" state="M"/>
    <connection from=":J1_5" to="E3" fromLane="0" toLane="2" dir="l" state="M"/>
    <connection from=":J1_6" to="E1" fromLane="0" toLane="0" dir="r" state="M"/>
    <connection from=":J1_7" to="E2" fromLane="0" toLane="1" dir="s" state="M"/>
    <connection from=":J1_8" to="E7" fromLane="0" toLane="2" via=":J1_13_0" dir="l" state="m"/>
    <connection from=":J1_13" to="E7" fromLane="0" toLane="2" dir="l" state="M"/>
    <connection from=":J1_9" to="E3" fromLane="0" toLane="0" dir="r" state="M"/>
    <connection from=":J1_10" to="E1" fromLane="0" toLane="1" dir="s" state="M"/>
    <connection from=":J1_11" to="E2" fromLane="0" toLane="2" dir="l" state="M"/>

</net>
